Version 4
SHEET 1 880 680
WIRE 512 -16 288 -16
WIRE 256 16 192 16
WIRE 368 16 336 16
WIRE 512 16 512 -16
WIRE 288 80 288 -16
WIRE 192 96 192 16
WIRE 192 96 160 96
WIRE 224 96 192 96
WIRE 368 128 368 16
WIRE 368 128 352 128
WIRE 400 128 368 128
WIRE 416 128 400 128
WIRE 592 128 512 128
WIRE 224 144 176 144
WIRE 592 160 592 128
WIRE 80 208 80 96
WIRE 80 240 80 208
WIRE 288 240 288 160
WIRE 512 240 512 208
WIRE 512 240 288 240
WIRE 128 320 80 320
WIRE 176 320 176 144
WIRE 176 320 128 320
FLAG 128 320 0
FLAG 400 128 out
FLAG 592 160 0
FLAG 512 96 0
FLAG 512 -16 vdd
FLAG 512 240 vss
FLAG 80 208 Vin
SYMBOL voltage 80 224 R0
WINDOW 123 24 124 Left 2
WINDOW 39 0 0 Left 0
WINDOW 3 24 44 Left 2
SYMATTR Value2 AC 1
SYMATTR Value 1
SYMATTR InstName V1
SYMBOL voltage 512 0 R0
WINDOW 123 0 0 Left 0
WINDOW 39 0 0 Left 0
SYMATTR InstName V2
SYMATTR Value 2.5
SYMBOL voltage 512 224 R180
WINDOW 0 24 96 Left 2
WINDOW 3 24 16 Left 2
WINDOW 123 0 0 Left 0
WINDOW 39 0 0 Left 0
SYMATTR InstName V3
SYMATTR Value -2.5
SYMBOL AutoGenerated\\OPAMP_BASE 272 128 R0
SYMATTR InstName U1
SYMBOL res 176 80 R90
WINDOW 0 0 56 VBottom 2
WINDOW 3 32 56 VTop 2
SYMATTR InstName R1
SYMATTR Value 10G
SYMBOL res 352 0 R90
WINDOW 0 0 56 VBottom 2
WINDOW 3 32 56 VTop 2
SYMATTR InstName R2
SYMATTR Value 100G
TEXT 48 368 Left 2 !.dc V1 -2.5 2.5 .001
